STAAD SPACE
START JOB INFORMATION
ENGINEER DATE 25-Jan-25
END JOB INFORMATION
INPUT WIDTH 79
UNIT METER KN
JOINT COORDINATES
1 0 0 0; 2 5.00001 0 0; 3 10 0 0; 4 15 0 0; 5 20 0 0; 6 25 0 0; 7 30.0001 0 0;
8 35.0001 0 0; 9 40.0001 0 0; 10 45.0001 0 0; 11 50.0001 0 0; 12 0 0 5.00001;
13 5.00001 0 5.00001; 14 10 0 5.00001; 15 15 0 5.00001; 16 20 0 5.00001;
17 25 0 5.00001; 18 30.0001 0 5.00001; 19 35.0001 0 5.00001;
20 40.0001 0 5.00001; 21 45.0001 0 5.00001; 22 50.0001 0 5.00001; 23 0 0 10;
24 5.00001 0 10; 25 10 0 10; 26 15 0 10; 27 20 0 10; 28 25 0 10;
29 30.0001 0 10; 30 35.0001 0 10; 31 40.0001 0 10; 32 45.0001 0 10;
33 50.0001 0 10; 34 0 0 15; 35 5.00001 0 15; 36 10 0 15; 37 15 0 15;
38 20 0 15; 39 25 0 15; 40 30.0001 0 15; 41 35.0001 0 15; 42 40.0001 0 15;
43 45.0001 0 15; 44 50.0001 0 15; 45 0 0 20; 46 5.00001 0 20; 47 10 0 20;
48 15 0 20; 49 20 0 20; 50 25 0 20; 51 30.0001 0 20; 52 35.0001 0 20;
53 40.0001 0 20; 54 45.0001 0 20; 55 50.0001 0 20; 56 0 0 25.0001;
57 5.00001 0 25.0001; 58 10 0 25.0001; 59 15 0 25.0001; 60 20 0 25.0001;
61 25 0 25.0001; 62 30.0001 0 25.0001; 63 35.0001 0 25.0001;
64 40.0001 0 25.0001; 65 45.0001 0 25.0001; 66 50.0001 0 25.0001;
67 0 0 30.0001; 68 5.00001 0 30.0001; 69 10 0 30.0001; 70 15 0 30.0001;
71 20 0 30.0001; 72 25 0 30.0001; 73 30.0001 0 30.0001; 74 35.0001 0 30.0001;
75 40.0001 0 30.0001; 76 45.0001 0 30.0001; 77 50.0001 0 30.0001;
78 0 3.40001 0; 79 5.00001 3.40001 0; 80 10 3.40001 0; 81 15 3.40001 0;
82 20 3.40001 0; 83 25 3.40001 0; 84 30.0001 3.40001 0; 85 35.0001 3.40001 0;
# ... 1304 like lines cut
MEMBER INCIDENCES
1 1 2; 2 2 3; 3 3 4; 4 4 5; 5 5 6; 6 6 7; 7 7 8; 8 8 9; 9 9 10; 10 10 11;
11 1 12; 12 2 13; 13 3 14; 14 4 15; 15 5 16; 16 6 17; 17 7 18; 18 8 19;
19 9 20; 20 10 21; 21 11 22; 22 12 13; 23 13 14; 24 14 15; 25 15 16; 26 16 17;
27 17 18; 28 18 19; 29 19 20; 30 20 21; 31 21 22; 32 12 23; 33 13 24; 34 14 25;
35 15 26; 36 16 27; 37 17 28; 38 18 29; 39 19 30; 40 20 31; 41 21 32; 42 22 33;
43 23 24; 44 24 25; 45 25 26; 46 26 27; 47 27 28; 48 28 29; 49 29 30; 50 30 31;
51 31 32; 52 32 33; 53 23 34; 54 24 35; 55 25 36; 56 26 37; 57 27 38; 58 28 39;
59 29 40; 60 30 41; 61 31 42; 62 32 43; 63 33 44; 64 34 35; 65 35 36; 66 36 37;
67 37 38; 68 38 39; 69 39 40; 70 40 41; 71 41 42; 72 42 43; 73 43 44; 74 34 45;
75 35 46; 76 36 47; 77 37 48; 78 38 49; 79 39 50; 80 40 51; 81 41 52; 82 42 53;
83 43 54; 84 44 55; 85 45 46; 86 46 47; 87 47 48; 88 48 49; 89 49 50; 90 50 51;
91 51 52; 92 52 53; 93 53 54; 94 54 55; 95 45 56; 96 46 57; 97 47 58; 98 48 59;
99 49 60; 100 50 61; 101 51 62; 102 52 63; 103 53 64; 104 54 65; 105 55 66;
106 56 57; 107 57 58; 108 58 59; 109 59 60; 110 60 61; 111 61 62; 112 62 63;
113 63 64; 114 64 65; 115 65 66; 116 56 67; 117 57 68; 118 58 69; 119 59 70;
120 60 71; 121 61 72; 122 62 73; 123 63 74; 124 64 75; 125 65 76; 126 66 77;
127 67 68; 128 68 69; 129 69 70; 130 70 71; 131 71 72; 132 72 73; 133 73 74;
134 74 75; 135 75 76; 136 76 77; 137 1 78; 138 2 79; 139 3 80; 140 4 81;
141 5 82; 142 6 83; 143 7 84; 144 8 85; 145 9 86; 146 10 87; 147 11 88;
148 12 89; 149 13 90; 150 14 91; 151 15 92; 152 16 93; 153 17 94; 154 18 95;
# ... 2152 like lines cut
ELEMENT INCIDENCES SHELL
10864 3851 3852 3863 3862; 10865 3852 3853 3864 3863;
10866 3853 3854 3865 3864; 10867 3854 3855 3866 3865;
10868 3855 3856 3867 3866; 10869 3856 3857 3868 3867;
10870 3857 3858 3869 3868; 10871 3858 3859 3870 3869;
10872 3859 3860 3871 3870; 10873 3860 3861 3872 3871;
10874 3862 3863 3874 3873; 10875 3863 3864 3875 3874;
10876 3864 3865 3876 3875; 10877 3865 3866 3877 3876;
10878 3866 3867 3878 3877; 10879 3867 3868 3879 3878;
10880 3868 3869 3880 3879; 10881 3869 3870 3881 3880;
10882 3870 3871 3882 3881; 10883 3871 3872 3883 3882;
10884 3873 3874 3885 3884; 10885 3874 3875 3886 3885;
10886 3875 3876 3887 3886; 10887 3876 3877 3888 3887;
10888 3877 3878 3889 3888; 10889 3878 3879 3890 3889;
10890 3879 3880 3891 3890; 10891 3880 3881 3892 3891;
10892 3881 3882 3893 3892; 10893 3882 3883 3894 3893;
10894 3884 3885 3896 3895; 10895 3885 3886 3897 3896;
10896 3886 3887 3898 3897; 10897 3887 3888 3899 3898;
10898 3888 3889 3900 3899; 10899 3889 3890 3901 3900;
10900 3890 3891 3902 3901; 10901 3891 3892 3903 3902;
10902 3892 3893 3904 3903; 10903 3893 3894 3905 3904;
# ... 1374 like lines cut
ELEMENT PROPERTY
10864 TO 13923 THICKNESS 0.15
DEFINE MATERIAL START
ISOTROPIC CONCRETE
E 2.17184e+07
POISSON 0.17
DENSITY 23.5615
ALPHA 5.5e-06
DAMP 0.05
G 9.28137e+06
TYPE CONCRETE
STRENGTH FCU 30000
END DEFINE MATERIAL
MEMBER PROPERTY
137 TO 213 350 TO 426 563 TO 639 776 TO 852 989 TO 1065 1202 TO 1278 1415 -
1416 TO 1491 1628 TO 1704 1841 TO 1917 2054 TO 2130 10787 TO 10862 -
10863 PRIS YD 1.8 ZD 1.8
2267 TO 2343 2480 TO 2556 2693 TO 2769 2906 TO 2982 3119 TO 3195 -
3332 TO 3408 3545 TO 3621 3758 TO 3834 3971 TO 4047 4184 TO 4260 -
4397 TO 4473 4610 TO 4686 4823 TO 4899 5036 TO 5112 5249 TO 5325 -
5462 TO 5538 5675 TO 5751 5888 TO 5964 6101 TO 6177 6314 TO 6389 -
6390 PRIS YD 1.5 ZD 1.5
6527 TO 6603 6740 TO 6816 6953 TO 7029 7166 TO 7242 7379 TO 7455 -
7592 TO 7668 7805 TO 7881 8018 TO 8094 8231 TO 8307 8444 TO 8520 -
8657 TO 8733 8870 TO 8946 9083 TO 9159 9296 TO 9372 9509 TO 9585 -
9722 TO 9798 9935 TO 10011 10148 TO 10224 10361 TO 10437 10574 TO 10649 -
10650 PRIS YD 1.2 ZD 1.2
1 TO 136 214 TO 349 427 TO 562 640 TO 775 853 TO 988 1066 TO 1201 -
1279 TO 1414 1492 TO 1627 1705 TO 1840 1918 TO 2053 2131 TO 2266 -
2344 TO 2479 2557 TO 2692 2770 TO 2905 2983 TO 3118 3196 TO 3331 -
3409 TO 3544 3622 TO 3757 3835 TO 3970 4048 TO 4183 4261 TO 4396 -
4474 TO 4609 4687 TO 4822 4900 TO 5035 5113 TO 5248 5326 TO 5461 -
5539 TO 5674 5752 TO 5887 5965 TO 6100 6178 TO 6313 6391 TO 6526 -
6604 TO 6739 6817 TO 6952 7030 TO 7165 7243 TO 7378 7456 TO 7591 -
7669 TO 7804 7882 TO 8017 8095 TO 8230 8308 TO 8443 8521 TO 8656 -
8734 TO 8869 8947 TO 9082 9160 TO 9295 9373 TO 9508 9586 TO 9721 -
9799 TO 9934 10012 TO 10147 10225 TO 10360 10438 TO 10573 10651 TO 10785 -
10786 PRIS YD 0.6 ZD 0.3
CONSTANTS
MATERIAL CONCRETE ALL
SUPPORTS
3928 TO 4004 FIXED
DEFINE 1893 LOAD
ZONE 0.16 RF 5 I 1.5 SS 1 ST 1 DM 0.05
SELFWEIGHT 1
MEMBER WEIGHT
1 TO 10 22 TO 31 43 TO 52 64 TO 73 85 TO 94 106 TO 115 127 TO 223 235 TO 244 -
256 TO 265 277 TO 286 298 TO 307 319 TO 328 340 TO 436 448 TO 457 -
469 TO 478 490 TO 499 511 TO 520 532 TO 541 553 TO 649 661 TO 670 -
682 TO 691 703 TO 712 724 TO 733 745 TO 754 766 TO 862 874 TO 883 -
895 TO 904 916 TO 925 937 TO 946 958 TO 967 979 TO 1075 1087 TO 1096 1108 -
1109 TO 1117 1129 TO 1138 1150 TO 1159 1171 TO 1180 1192 TO 1288 -
1300 TO 1309 1321 TO 1330 1342 TO 1351 1363 TO 1372 1384 TO 1393 -
1405 TO 1501 1513 TO 1522 1534 TO 1543 1555 TO 1564 1576 TO 1585 -
1597 TO 1606 1618 TO 1714 1726 TO 1735 1747 TO 1756 1768 TO 1777 -
1789 TO 1798 1810 TO 1819 1831 TO 1927 1939 TO 1948 1960 TO 1969 -
1981 TO 1990 2002 TO 2011 2023 TO 2032 2044 TO 2140 2152 TO 2161 -
2173 TO 2182 2194 TO 2203 2215 TO 2224 2236 TO 2245 2257 TO 2353 -
2365 TO 2374 2386 TO 2395 2407 TO 2416 2428 TO 2437 2449 TO 2458 -
2470 TO 2566 2578 TO 2587 2599 TO 2608 2620 TO 2629 2641 TO 2650 -
2662 TO 2671 2683 TO 2779 2791 TO 2800 2812 TO 2821 2833 TO 2842 -
2854 TO 2863 2875 TO 2884 2896 TO 2992 3004 TO 3013 3025 TO 3034 -
3046 TO 3055 3067 TO 3076 3088 TO 3097 3109 TO 3205 3217 TO 3226 -
3238 TO 3247 3259 UNI 15 0 0
3260 TO 3268 3280 TO 3289 3301 TO 3310 3322 TO 3418 3430 TO 3439 -
3451 TO 3460 3472 TO 3481 3493 TO 3502 3514 TO 3523 3535 TO 3631 -
3643 TO 3652 3664 TO 3673 3685 TO 3694 3706 TO 3715 3727 TO 3736 -
3748 TO 3844 3856 TO 3865 3877 TO 3886 3898 TO 3907 3919 TO 3928 -
3940 TO 3949 3961 TO 4057 4069 TO 4078 4090 TO 4099 4111 TO 4120 -
4132 TO 4141 4153 TO 4162 4174 TO 4270 4282 TO 4291 4303 TO 4312 -
4324 TO 4333 4345 TO 4354 4366 TO 4375 4387 TO 4483 4495 TO 4504 -
4516 TO 4525 4537 TO 4546 4558 TO 4567 4579 TO 4588 4600 TO 4696 -
4708 TO 4717 4729 TO 4738 4750 TO 4759 4771 TO 4780 4792 TO 4801 -
4813 TO 4909 4921 TO 4930 4942 TO 4951 4963 TO 4972 4984 TO 4993 -
5005 TO 5014 5026 TO 5122 5134 TO 5143 5155 TO 5164 5176 TO 5185 -
5197 TO 5206 5218 TO 5227 5239 TO 5335 5347 TO 5356 5368 TO 5377 -
5389 TO 5398 5410 TO 5419 5431 TO 5440 5452 TO 5548 5560 TO 5569 -
5581 TO 5590 5602 TO 5611 5623 TO 5632 5644 TO 5653 5665 TO 5761 -
5773 TO 5782 5794 TO 5803 5815 TO 5824 5836 TO 5845 5857 TO 5866 -
5878 TO 5974 5986 TO 5995 6007 TO 6016 6028 TO 6037 6049 TO 6058 -
6070 TO 6079 6091 TO 6187 6199 TO 6208 6220 TO 6229 6241 TO 6250 -
6262 TO 6271 6283 TO 6292 6304 TO 6400 6412 TO 6421 6433 TO 6442 -
6454 TO 6463 6475 TO 6484 6496 TO 6505 6517 UNI 15 0 0
6518 TO 6613 6625 TO 6634 6646 TO 6655 6667 TO 6676 6688 TO 6697 -
6709 TO 6718 6730 TO 6826 6838 TO 6847 6859 TO 6868 6880 TO 6889 -
6901 TO 6910 6922 TO 6931 6943 TO 7039 7051 TO 7060 7072 TO 7081 -
7093 TO 7102 7114 TO 7123 7135 TO 7144 7156 TO 7252 7264 TO 7273 -
7285 TO 7294 7306 TO 7315 7327 TO 7336 7348 TO 7357 7369 TO 7465 -
7477 TO 7486 7498 TO 7507 7519 TO 7528 7540 TO 7549 7561 TO 7570 -
7582 TO 7678 7690 TO 7699 7711 TO 7720 7732 TO 7741 7753 TO 7762 -
7774 TO 7783 7795 TO 7891 7903 TO 7912 7924 TO 7933 7945 TO 7954 -
7966 TO 7975 7987 TO 7996 8008 TO 8104 8116 TO 8125 8137 TO 8146 -
8158 TO 8167 8179 TO 8188 8200 TO 8209 8221 TO 8317 8329 TO 8338 -
8350 TO 8359 8371 TO 8380 8392 TO 8401 8413 TO 8422 8434 TO 8530 -
8542 TO 8551 8563 TO 8572 8584 TO 8593 8605 TO 8614 8626 TO 8635 -
8647 TO 8743 8755 TO 8764 8776 TO 8785 8797 TO 8806 8818 TO 8827 -
8839 TO 8848 8860 TO 8956 8968 TO 8977 8989 TO 8998 9010 TO 9019 -
9031 TO 9040 9052 TO 9061 9073 TO 9169 9181 TO 9190 9202 TO 9211 -
9223 TO 9232 9244 TO 9253 9265 TO 9274 9286 TO 9382 9394 TO 9403 -
9415 TO 9424 9436 TO 9445 9457 TO 9466 9478 TO 9487 9499 TO 9595 -
9607 TO 9616 9628 TO 9637 9649 TO 9658 9670 TO 9679 9691 TO 9700 -
9712 TO 9808 9820 TO 9829 9841 TO 9850 9862 UNI 15 0 0
9863 TO 9871 9883 TO 9892 9904 TO 9913 9925 TO 10021 10033 TO 10042 10054 -
10055 TO 10063 10075 TO 10084 10096 TO 10105 10117 TO 10126 10138 TO 10234 -
10246 TO 10255 10267 TO 10276 10288 TO 10297 10309 TO 10318 10330 TO 10339 -
10351 TO 10447 10459 TO 10468 10480 TO 10489 10501 TO 10510 10522 TO 10531 -
10543 TO 10552 10564 TO 10660 10672 TO 10681 10693 TO 10702 10714 TO 10723 -
10735 TO 10744 10756 TO 10765 10777 TO 10863 UNI 15 0 0
FLOOR WEIGHT
YRANGE 2.8 172.8 FLOAD 2.55
DEFINE WIND LOAD
TYPE 1 WIND 1
<! STAAD PRO GENERATED DATA DO NOT MODIFY !!!
CUSTOM:PARAMS 
!> END GENERATED DATA BLOCK
INT 0.527 0.527 0.527 0.789 1.006 1.207 1.314 1.358 HEIG 10 15 20 30 50 100 -
150 172.8
LOAD 1 LOADTYPE Seismic-H  TITLE EQ +X
1893 LOAD X 1
LOAD 2 LOADTYPE Seismic-H  TITLE EQ -X
1893 LOAD X -1
LOAD 3 LOADTYPE Seismic-H  TITLE EQ +Z
1893 LOAD Z 1
LOAD 4 LOADTYPE Seismic-H  TITLE EQ -Z
1893 LOAD Z -1
LOAD 5 LOADTYPE Dead  TITLE DL
FLOOR LOAD
YRANGE 0 172.8 FLOAD -1 GY
MEMBER LOAD
1 TO 136 214 TO 349 427 TO 562 640 TO 775 853 TO 988 1066 TO 1201 -
1279 TO 1414 1492 TO 1627 1705 TO 1840 1918 TO 2053 2131 TO 2266 -
2344 TO 2479 2557 TO 2692 2770 TO 2905 2983 TO 3118 3196 TO 3331 -
3409 TO 3544 3622 TO 3757 3835 TO 3970 4048 TO 4183 4261 TO 4396 -
4474 TO 4609 4687 TO 4822 4900 TO 5035 5113 TO 5248 5326 TO 5461 -
5539 TO 5674 5752 TO 5887 5965 TO 6100 6178 TO 6313 6391 TO 6526 -
6604 TO 6739 6817 TO 6952 7030 TO 7165 7243 TO 7378 7456 TO 7591 -
7669 TO 7804 7882 TO 8017 8095 TO 8230 8308 TO 8443 8521 TO 8656 -
8734 TO 8869 8947 TO 9082 9160 TO 9295 9373 TO 9508 9586 TO 9721 -
9799 TO 9934 10012 TO 10147 10225 TO 10360 10438 TO 10573 UNI GY -15.64
SELFWEIGHT Y -1 
LOAD 6 LOADTYPE Live  TITLE LL
FLOOR LOAD
YRANGE 0 172.8 FLOAD -4 GY
LOAD 7 LOADTYPE Wind  TITLE WL +X
WIND LOAD X 1 TYPE 1 YR 0 172.8 ZR 0 30
LOAD 8 LOADTYPE Wind  TITLE WL -X
WIND LOAD X -1 TYPE 1 XR 50 50 YR 0 172.8 ZR 0 30
LOAD 9 LOADTYPE Wind  TITLE WL +Z
WIND LOAD Z 1 TYPE 1 XR 0 50 YR 0 172.8
LOAD 10 LOADTYPE Wind  TITLE WL -Z
WIND LOAD X -1 TYPE 1 XR 0 50 YR 0 172.8 ZR 30 30
LOAD COMB 11 COMB - 1.5 DEAD + 1.5 LIVE
5 1.5 6 1.5 
LOAD COMB 12 COMB - 1.2 DEAD + 1.2 LIVE + 1.2 WIND (1)
5 1.2 6 1.2 7 1.2 
LOAD COMB 13 COMB - 1.2 DEAD + 1.2 LIVE + 1.2 WIND (2)
5 1.2 6 1.2 8 1.2 
LOAD COMB 14 COMB - 1.2 DEAD + 1.2 LIVE + 1.2 WIND (3)
5 1.2 6 1.2 9 1.2 
LOAD COMB 15 COMB - 1.2 DEAD + 1.2 LIVE + 1.2 WIND (4)
5 1.2 6 1.2 10 1.2 
LOAD COMB 16 COMB - 1.2 DEAD + 1.2 LIVE + -1.2 WIND (1)
5 1.2 6 1.2 7 -1.2 
LOAD COMB 17 COMB - 1.2 DEAD + 1.2 LIVE + -1.2 WIND (2)
5 1.2 6 1.2 8 -1.2 
LOAD COMB 18 COMB - 1.2 DEAD + 1.2 LIVE + -1.2 WIND (3)
5 1.2 6 1.2 9 -1.2 
LOAD COMB 19 COMB - 1.2 DEAD + 1.2 LIVE + -1.2 WIND (4)
5 1.2 6 1.2 10 -1.2 
LOAD COMB 20 COMB - 1.2 DEAD + 1.2 LIVE + 1.2 SEISMIC-H (1)
5 1.2 6 1.2 1 1.2 
LOAD COMB 21 COMB - 1.2 DEAD + 1.2 LIVE + 1.2 SEISMIC-H (2)
5 1.2 6 1.2 2 1.2 
LOAD COMB 22 COMB - 1.2 DEAD + 1.2 LIVE + 1.2 SEISMIC-H (3)
5 1.2 6 1.2 3 1.2 
LOAD COMB 23 COMB - 1.2 DEAD + 1.2 LIVE + 1.2 SEISMIC-H (4)
5 1.2 6 1.2 4 1.2 
LOAD COMB 24 COMB - 1.2 DEAD + 1.2 LIVE + -1.2 SEISMIC-H (1)
5 1.2 6 1.2 1 -1.2 
LOAD COMB 25 COMB - 1.2 DEAD + 1.2 LIVE + -1.2 SEISMIC-H (2)
5 1.2 6 1.2 2 -1.2 
LOAD COMB 26 COMB - 1.2 DEAD + 1.2 LIVE + -1.2 SEISMIC-H (3)
5 1.2 6 1.2 3 -1.2 
LOAD COMB 27 COMB - 1.2 DEAD + 1.2 LIVE + -1.2 SEISMIC-H (4)
5 1.2 6 1.2 4 -1.2 
LOAD COMB 28 COMB - 1.5 DEAD + 1.5 WIND (1)
5 1.5 7 1.5 
LOAD COMB 29 COMB - 1.5 DEAD + 1.5 WIND (2)
5 1.5 8 1.5 
LOAD COMB 30 COMB - 1.5 DEAD + 1.5 WIND (3)
5 1.5 9 1.5 
LOAD COMB 31 COMB - 1.5 DEAD + 1.5 WIND (4)
5 1.5 10 1.5 
LOAD COMB 32 COMB - 1.5 DEAD + -1.5 WIND (1)
5 1.5 7 -1.5 
LOAD COMB 33 COMB - 1.5 DEAD + -1.5 WIND (2)
5 1.5 8 -1.5 
LOAD COMB 34 COMB - 1.5 DEAD + -1.5 WIND (3)
5 1.5 9 -1.5 
LOAD COMB 35 COMB - 1.5 DEAD + -1.5 WIND (4)
5 1.5 10 -1.5 
LOAD COMB 36 COMB - 1.5 DEAD + 1.5 SEISMIC-H (1)
5 1.5 1 1.5 
LOAD COMB 37 COMB - 1.5 DEAD + 1.5 SEISMIC-H (2)
5 1.5 2 1.5 
LOAD COMB 38 COMB - 1.5 DEAD + 1.5 SEISMIC-H (3)
5 1.5 3 1.5 
LOAD COMB 39 COMB - 1.5 DEAD + 1.5 SEISMIC-H (4)
5 1.5 4 1.5 
LOAD COMB 40 COMB - 1.5 DEAD + -1.5 SEISMIC-H (1)
5 1.5 1 -1.5 
LOAD COMB 41 COMB - 1.5 DEAD + -1.5 SEISMIC-H (2)
5 1.5 2 -1.5 
LOAD COMB 42 COMB - 1.5 DEAD + -1.5 SEISMIC-H (3)
5 1.5 3 -1.5 
LOAD COMB 43 COMB - 1.5 DEAD + -1.5 SEISMIC-H (4)
5 1.5 4 -1.5 
LOAD COMB 44 COMB - 0.9 DEAD + 1.5 WIND (1)
5 0.9 7 1.5 
LOAD COMB 45 COMB - 0.9 DEAD + 1.5 WIND (2)
5 0.9 8 1.5 
LOAD COMB 46 COMB - 0.9 DEAD + 1.5 WIND (3)
5 0.9 9 1.5 
LOAD COMB 47 COMB - 0.9 DEAD + 1.5 WIND (4)
5 0.9 10 1.5 
LOAD COMB 48 COMB - 0.9 DEAD + -1.5 WIND (1)
5 0.9 7 -1.5 
LOAD COMB 49 COMB - 0.9 DEAD + -1.5 WIND (2)
5 0.9 8 -1.5 
LOAD COMB 50 COMB - 0.9 DEAD + -1.5 WIND (3)
5 0.9 9 -1.5 
LOAD COMB 51 COMB - 0.9 DEAD + -1.5 WIND (4)
5 0.9 10 -1.5 
LOAD COMB 52 COMB - 0.9 DEAD + 1.5 SEISMIC-H (1)
5 0.9 1 1.5 
LOAD COMB 53 COMB - 0.9 DEAD + 1.5 SEISMIC-H (2)
5 0.9 2 1.5 
LOAD COMB 54 COMB - 0.9 DEAD + 1.5 SEISMIC-H (3)
5 0.9 3 1.5 
LOAD COMB 55 COMB - 0.9 DEAD + 1.5 SEISMIC-H (4)
5 0.9 4 1.5 
LOAD COMB 56 COMB - 0.9 DEAD + -1.5 SEISMIC-H (1)
5 0.9 1 -1.5 
LOAD COMB 57 COMB - 0.9 DEAD + -1.5 SEISMIC-H (2)
5 0.9 2 -1.5 
LOAD COMB 58 COMB - 0.9 DEAD + -1.5 SEISMIC-H (3)
5 0.9 3 -1.5 
LOAD COMB 59 COMB - 0.9 DEAD + -1.5 SEISMIC-H (4)
5 0.9 4 -1.5 
PERFORM ANALYSIS
FINISH
